/*--------------------------------*- C++ -*----------------------------------*\
| =========                 |                                                 |
| \\      /  F ield         | OpenFOAM: The Open Source CFD Toolbox           |
|  \\    /   O peration     | Version:  v2512                                 |
|   \\  /    A nd           | Website:  www.openfoam.com                      |
|    \\/     M anipulation  |                                                 |
\*---------------------------------------------------------------------------*/
FoamFile
{
    format      ascii;
    class       volScalarField;
    location    "0";
    object      p;
}
// * * * * * * * * * * * * * * * * * * * * * * * * * * * * * * * * * * * * * //

dimensions      [0 2 -2 0 0 0 0];

internalField   uniform 0;

boundaryField
{
    surface
    {
        type            zeroGradient;
        value           $internalField;
    }
    inlet
    {
        type            zeroGradient;
        value           $internalField;
    }
    outlet
    {       
        type            fixedValue;
        value           $internalField;
    }
    "wedge.*"
    {
        type            wedge;
    }
    defaultFaces
    {
        type            empty;
        value           $internalField;
    }
}

// ************************************************************************* //
